[TITLE]
;;Project Title/Notes

[OPTIONS]
;;Option            	Value
FLOW_UNITS          	CFS
INFILTRATION        	CURVE_NUMBER
FLOW_ROUTING        	DYNWAVE
LINK_OFFSETS        	DEPTH
MIN_SLOPE           	0
ALLOW_PONDING       	YES
SKIP_STEADY_STATE   	NO

START_DATE          	08/04/2014
START_TIME          	00:00:00
REPORT_START_DATE   	08/04/2014
REPORT_START_TIME   	00:00:00
END_DATE            	08/08/2014
END_TIME            	00:00:00
SWEEP_START         	01/01
SWEEP_END           	12/31
DRY_DAYS            	0
REPORT_STEP         	01:00:00
WET_STEP            	00:05:00
DRY_STEP            	01:00:00
ROUTING_STEP        	0:00:05 

INERTIAL_DAMPING    	NONE
NORMAL_FLOW_LIMITED 	BOTH
FORCE_MAIN_EQUATION 	H-W
VARIABLE_STEP       	0.75
LENGTHENING_STEP    	0
MIN_SURFAREA        	12.557
MAX_TRIALS          	20
HEAD_TOLERANCE      	0.005
SYS_FLOW_TOL        	5
LAT_FLOW_TOL        	5

[EVAPORATION]
;;Evap Data     	Parameters
;;--------------	----------------
CONSTANT        	0.0
DRY_ONLY        	NO

[RAINGAGES]
;;Gage          	Format   	Interval	SCF     	Source    
;;--------------	---------	------	------	----------
Gage1           	INTENSITY	1:00    	1.0     	TIMESERIES	RainGages       

[SUBCATCHMENTS]
;;Subcatchment  	Rain Gage       	Outlet          	Area    	%Imperv 	Width   	%Slope  	CurbLen 	Snow Pack       
;;--------------	----------------	----------------	--------	--------	--------	--------	--------	----------------
SubCatchment1   	Gage1           	Node1           	5       	25      	500     	0.5     	0       	                

[SUBAREAS]
;;Subcatchment  	N-Imperv  	N-Perv    	S-Imperv  	S-Perv    	PctZero   	RouteTo   	PctRouted 
;;--------------	----------	----------	----------	----------	----------	----------	----------
SubCatchment1   	0.01      	0.1       	0.05      	0.05      	25        	OUTLET    

[INFILTRATION]
;;Subcatchment  	CurveNum  	HydCon    	DryTime   
;;--------------	----------	----------	----------
SubCatchment1   	60        	0.5       	4         

[JUNCTIONS]
;;Junction      	Invert    	Dmax      	Dinit     	Dsurch    	Aponded   
;;--------------	----------	----------	----------	----------	----------
Node1           	-1        	10        	5         	0         	00000000000000000000
Node2           	-3        	10        	7         	0         	0.0000000000000000000001

[OUTFALLS]
;;Outfall       	Invert    	Type      	Stage Data      	Gated   
;;--------------	----------	----------	----------------	--------
Node3           	0         	FIXED     	4               	NO

[CONDUITS]
;;Conduit       	From Node       	To Node         	Length    	Roughness 	InOffset  	OutOffset 	InitFlow  	MaxFlow   
;;--------------	----------------	----------------	----------	----------	----------	----------	----------	----------
Link1           	Node1           	Node2           	6000      	0.5       	0         	0         	0         	0         
Link2           	Node2           	Node3           	4000      	0.1       	0         	0         	0         	0         

[XSECTIONS]
;;Link          	Shape       	Geom1           	Geom2     	Geom3     	Geom4     	Barrels   
;;--------------	------------	----------------	----------	----------	----------	----------
Link1           	RECT_OPEN   	10              	10        	0         	0         	1         	          
Link2           	RECT_OPEN   	10              	10        	0         	0         	1         	          

[LOSSES]
;;Link          	Kin       	Kout      	Kavg      	Flap Gate 	SeepRate  
;;--------------	----------	----------	----------	----------	----------

[INFLOWS]
;;Node          	Inflow          	Time Series     	Type    	Funits  	Fscale  	Baseline	Pattern
;;--------------	----------------	----------------	--------	--------	--------	--------	--------
Node1           	FLOW            	Timets          	FLOW    	1.0     	1.0     	        
Node3           	FLOW            	""              	FLOW    	1.0     	1.0     	-3      

[TIMESERIES]
;;Time Series   	Date      	Time      	Value     
;;--------------	----------	----------	----------
Timets          	8/4/2014  	0:00      	10        
Timets          	8/4/2014  	6:00      	8.933333333
Timets          	8/4/2014  	12:00     	7.866666667
Timets          	8/4/2014  	18:00     	6.8       
Timets          	8/5/2014  	0:00      	5.733333333
Timets          	8/5/2014  	6:00      	4.666666667
Timets          	8/5/2014  	12:00     	3.6       
Timets          	8/5/2014  	18:00     	2.533333333
Timets          	8/6/2014  	0:00      	1.466666667
Timets          	8/6/2014  	6:00      	0.4       
Timets          	8/6/2014  	12:00     	-0.666666667
Timets          	8/6/2014  	18:00     	-1.733333333
Timets          	8/7/2014  	0:00      	-2.8      
Timets          	8/7/2014  	6:00      	-3.866666667
Timets          	8/7/2014  	12:00     	-4.933333333
Timets          	8/7/2014  	18:00     	-6        
;
RainGages       	8/4/2014  	0:00      	0.5       
RainGages       	8/4/2014  	1:00      	0.496527778
RainGages       	8/4/2014  	2:00      	0.493055556
RainGages       	8/4/2014  	3:00      	0.489583333
RainGages       	8/4/2014  	4:00      	0.486111111
RainGages       	8/4/2014  	5:00      	0.482638889
RainGages       	8/4/2014  	6:00      	0.479166667
RainGages       	8/4/2014  	7:00      	0.475694444
RainGages       	8/4/2014  	8:00      	0.472222222
RainGages       	8/4/2014  	9:00      	0.46875   
RainGages       	8/4/2014  	10:00     	0.465277778
RainGages       	8/4/2014  	11:00     	0.461805556
RainGages       	8/4/2014  	12:00     	0.458333333
RainGages       	8/4/2014  	13:00     	0.454861111
RainGages       	8/4/2014  	14:00     	0.451388889
RainGages       	8/4/2014  	15:00     	0.447916667
RainGages       	8/4/2014  	16:00     	0.444444444
RainGages       	8/4/2014  	17:00     	0.440972222
RainGages       	8/4/2014  	18:00     	0.4375    
RainGages       	8/4/2014  	19:00     	0.434027778
RainGages       	8/4/2014  	20:00     	0.430555556
RainGages       	8/4/2014  	21:00     	0.427083333
RainGages       	8/4/2014  	22:00     	0.423611111
RainGages       	8/4/2014  	23:00     	0.420138889
RainGages       	8/5/2014  	0:00      	0.416666667
RainGages       	8/5/2014  	1:00      	0.413194444
RainGages       	8/5/2014  	2:00      	0.409722222
RainGages       	8/5/2014  	3:00      	0.40625   
RainGages       	8/5/2014  	4:00      	0.402777778
RainGages       	8/5/2014  	5:00      	0.399305556
RainGages       	8/5/2014  	6:00      	0.395833333
RainGages       	8/5/2014  	7:00      	0.392361111
RainGages       	8/5/2014  	8:00      	0.388888889
RainGages       	8/5/2014  	9:00      	0.385416667
RainGages       	8/5/2014  	10:00     	0.381944444
RainGages       	8/5/2014  	11:00     	0.378472222
RainGages       	8/5/2014  	12:00     	0.375     
RainGages       	8/5/2014  	13:00     	0.371527778
RainGages       	8/5/2014  	14:00     	0.368055556
RainGages       	8/5/2014  	15:00     	0.364583333
RainGages       	8/5/2014  	16:00     	0.361111111
RainGages       	8/5/2014  	17:00     	0.357638889
RainGages       	8/5/2014  	18:00     	0.354166667
RainGages       	8/5/2014  	19:00     	0.350694444
RainGages       	8/5/2014  	20:00     	0.347222222
RainGages       	8/5/2014  	21:00     	0.34375   
RainGages       	8/5/2014  	22:00     	0.340277778
RainGages       	8/5/2014  	23:00     	0.336805556
RainGages       	8/6/2014  	0:00      	0.333333333
RainGages       	8/6/2014  	1:00      	0.329861111
RainGages       	8/6/2014  	2:00      	0.326388889
RainGages       	8/6/2014  	3:00      	0.322916667
RainGages       	8/6/2014  	4:00      	0.319444444
RainGages       	8/6/2014  	5:00      	0.315972222
RainGages       	8/6/2014  	6:00      	0.3125    
RainGages       	8/6/2014  	7:00      	0.309027778
RainGages       	8/6/2014  	8:00      	0.305555556
RainGages       	8/6/2014  	9:00      	0.302083333
RainGages       	8/6/2014  	10:00     	0.298611111
RainGages       	8/6/2014  	11:00     	0.295138889
RainGages       	8/6/2014  	12:00     	0.291666667
RainGages       	8/6/2014  	13:00     	0.288194444
RainGages       	8/6/2014  	14:00     	0.284722222
RainGages       	8/6/2014  	15:00     	0.28125   
RainGages       	8/6/2014  	16:00     	0.277777778
RainGages       	8/6/2014  	17:00     	0.274305556
RainGages       	8/6/2014  	18:00     	0.270833333
RainGages       	8/6/2014  	19:00     	0.267361111
RainGages       	8/6/2014  	20:00     	0.263888889
RainGages       	8/6/2014  	21:00     	0.260416667
RainGages       	8/6/2014  	22:00     	0.256944444
RainGages       	8/6/2014  	23:00     	0.253472222
RainGages       	8/7/2014  	0:00      	0.25      
RainGages       	8/7/2014  	1:00      	0.246527778
RainGages       	8/7/2014  	2:00      	0.243055556
RainGages       	8/7/2014  	3:00      	0.239583333
RainGages       	8/7/2014  	4:00      	0.236111111
RainGages       	8/7/2014  	5:00      	0.232638889
RainGages       	8/7/2014  	6:00      	0.229166667
RainGages       	8/7/2014  	7:00      	0.225694444
RainGages       	8/7/2014  	8:00      	0.222222222
RainGages       	8/7/2014  	9:00      	0.21875   
RainGages       	8/7/2014  	10:00     	0.215277778
RainGages       	8/7/2014  	11:00     	0.211805556
RainGages       	8/7/2014  	12:00     	0.208333333
RainGages       	8/7/2014  	13:00     	0.204861111
RainGages       	8/7/2014  	14:00     	0.201388889
RainGages       	8/7/2014  	15:00     	0.197916667
RainGages       	8/7/2014  	16:00     	0.194444444
RainGages       	8/7/2014  	17:00     	0.190972222
RainGages       	8/7/2014  	18:00     	0.1875    

[PATTERNS]
;;Pattern       	Type      	Multipliers
;;--------------	----------	-----------
test            	HOURLY    	0    	0    	0    	0    	0    	1.0  
test            	          	1.0  	1.0  	1.0  	1.0  	1.0  	1.0  
test            	          	1.0  	1.0  	1.0  	1.0  	1.0  	1.0  
test            	          	1.0  	1.0  	1.0  	1.0  	1.0  	1.0  
;
57              	HOURLY    	0    	0    	0    	0    	0    	0    
57              	          	0    	1.0  	1.0  	1.0  	1.0  	1.0  
57              	          	1.0  	1.0  	1.0  	1.0  	1.0  	1.0  
57              	          	1.0  	1.0  	1.0  	1.0  	1.0  	1.0  

[REPORT]
;;Reporting Options
INPUT     	NO
CONTROLS  	NO
SUBCATCHMENTS	ALL
NODES	ALL
LINKS	ALL

[TAGS]

[MAP]
DIMENSIONS	0.000	0.000	10000.000	10000.000
Units     	None

[COORDINATES]
;;Node          	X-Coord           	Y-Coord           
;;--------------	------------------	------------------
Node1           	-783.699          	7586.207          
Node2           	3477.654          	6131.285          
Node3           	8902.821          	5830.721          

[VERTICES]
;;Link          	X-Coord           	Y-Coord           
;;--------------	------------------	------------------

[Polygons]
;;Subcatchment  	X-Coord           	Y-Coord           
;;--------------	------------------	------------------
SubCatchment1   	-5981.481         	11685.185         
SubCatchment1   	-7296.296         	11425.926         
SubCatchment1   	-7777.778         	9870.370          
SubCatchment1   	-5796.296         	7814.815          
SubCatchment1   	-3870.370         	6925.926          
SubCatchment1   	-759.259          	7574.074          
SubCatchment1   	-259.259          	8240.741          
SubCatchment1   	462.963           	9259.259          
SubCatchment1   	666.667           	10703.704         
SubCatchment1   	-111.111          	11944.444         
SubCatchment1   	-2259.259         	12740.741         
SubCatchment1   	-5685.185         	11870.370         

[SYMBOLS]
;;Gage          	X-Coord           	Y-Coord           
;;--------------	------------------	------------------
Gage1           	-3981.481         	10592.593         

