[TITLE]
;;Project Title/Notes
Scenario Run :  SCN-22May 5 - The UH duration in the simulation options was varied from 5 - 20 minutes in 5 minute increments and no change in the runoff occured
SCS Type II 24 hr 100 yr storm for storage.
SCS Type II 24 hr 25 yr storm for major conveyance

[OPTIONS]
;;Option            	Value
FLOW_UNITS          	CFS
INFILTRATION        	CURVE_NUMBER
FLOW_ROUTING        	DYNWAVE
LINK_OFFSETS        	DEPTH
MIN_SLOPE           	0
ALLOW_PONDING       	YES
SKIP_STEADY_STATE   	NO

START_DATE          	01/01/2002
START_TIME          	00:00:00
REPORT_START_DATE   	01/01/2002
REPORT_START_TIME   	00:00:00
END_DATE            	01/02/2002
END_TIME            	23:00:00
SWEEP_START         	01/01
SWEEP_END           	12/31
DRY_DAYS            	5.000000
REPORT_STEP         	00:05:00
WET_STEP            	00:10:00
DRY_STEP            	23:00:00
ROUTING_STEP    	10

INERTIAL_DAMPING    	PARTIAL
NORMAL_FLOW_LIMITED 	BOTH
FORCE_MAIN_EQUATION 	H-W
VARIABLE_STEP    	0
LENGTHENING_STEP    	0
MIN_SURFAREA        	12.557
MAX_TRIALS          	8
HEAD_TOLERANCE      	0.005
SYS_FLOW_TOL        	5
LAT_FLOW_TOL        	5

[EVAPORATION]
;;Evap Data     	Parameters
;;--------------	----------------
CONSTANT        	0.000000
DRY_ONLY        	NO

[RAINGAGES]
;;Gage          	Format   	Interval	SCF     	Source    
;;--------------	---------	------	------	----------
; Logan USU
RAINGAGE-1      	CUMULATIVE	0.500000	1.000000	TIMESERIES	TIMESERI-23     
; Logan USU Exp. Stn.
RAINGAGE-2      	CUMULATIVE	0.500000	1.000000	TIMESERIES	TIMESERI-19     
; Logan Radio KVNU
RAINGAGE-3      	CUMULATIVE	0.500000	1.000000	TIMESERIES	TIMESERI-21     
; Logan 5 SW Exp. Farm
RAINGAGE-4      	CUMULATIVE	0.500000	1.000000	TIMESERIES	TIMESERI-17     

[SUBCATCHMENTS]
;;Subcatchment  	Rain Gage       	Outlet          	Area    	%Imperv 	Width   	%Slope  	CurbLen 	Snow Pack       
;;--------------	----------------	----------------	--------	--------	--------	--------	--------	----------------
; New Subcatchment
SUB-1000        	RAINGAGE-3      	OFALL-152       	6.905927	25.000000	500.000000	2.850000	0.000000	                
; New Subcatchment
SUB-1002        	RAINGAGE-3      	OFALL-154       	136.833314	25.000000	500.000000	0.860000	0.000000	                
; New Subcatchment
SUB-1004        	RAINGAGE-3      	OFALL-128       	114.474560	25.000000	500.000000	0.860000	0.000000	                
; New Subcatchment
SUB-1008        	RAINGAGE-3      	STOR-84         	35.391204	25.000000	500.000000	5.300000	0.000000	                
; New Subcatchment
SUB-1010        	RAINGAGE-3      	JCT-298         	55.562662	25.000000	500.000000	2.500000	0.000000	                
; New Subcatchment
SUB-1012        	RAINGAGE-3      	JCT-74          	1.033381	25.000000	500.000000	2.100000	0.000000	                
; New Subcatchment
SUB-1014        	RAINGAGE-3      	JCT-76          	0.762260	25.000000	500.000000	2.200000	0.000000	                
; New Subcatchment
SUB-1016        	RAINGAGE-3      	JCT-84          	0.852482	25.000000	500.000000	2.000000	0.000000	                
; New Subcatchment
SUB-1018        	RAINGAGE-3      	JCT-88          	0.302469	25.000000	500.000000	2.000000	0.000000	                
; New Subcatchment
SUB-1020        	RAINGAGE-3      	JCT-98          	0.748914	25.000000	500.000000	2.000000	0.000000	                
; New Subcatchment
SUB-1022        	RAINGAGE-2      	STOR-78         	32.117901	25.000000	500.000000	2.230000	0.000000	                
; New Subcatchment
SUB-1024        	RAINGAGE-2      	JCT-486         	22.828569	25.000000	500.000000	2.800000	0.000000	                
; New Subcatchment
SUB-1028        	RAINGAGE-3      	JCT-974         	20.556420	25.000000	500.000000	2.830000	0.000000	                
; New Subcatchment
SUB-1032        	RAINGAGE-4      	JCT-1080        	30.237222	25.000000	500.000000	0.850000	0.000000	                
; New Subcatchment
SUB-1034        	RAINGAGE-3      	STOR-112        	10.434745	25.000000	500.000000	3.075200	0.000000	                
; JCT-1012
SUB-544         	RAINGAGE-2      	JCT-1012        	8.710369	25.000000	1235.759208	1.919283	0.000000	                
SUB-546         	RAINGAGE-3      	JCT-1070        	54.727401	25.000000	3382.489036	2.272366	0.000000	                
SUB-550         	RAINGAGE-3      	JCT-1072        	29.683792	25.000000	3356.313104	3.156622	0.000000	                
SUB-556         	RAINGAGE-2      	JCT-470         	21.187734	25.000000	2607.335205	3.080183	0.000000	                
SUB-558         	RAINGAGE-2      	JCT-478         	29.380893	25.000000	4639.769264	2.841544	0.000000	                
SUB-562         	RAINGAGE-3      	JCT-1064        	117.205085	25.000000	5803.392396	3.072751	0.000000	                
SUB-564         	RAINGAGE-2      	STOR-18         	46.706803	25.000000	4559.547049	2.373346	0.000000	                
SUB-566         	RAINGAGE-2      	JCT-606         	42.525586	25.000000	4260.940527	2.925919	0.000000	                
SUB-568         	RAINGAGE-3      	JCT-1116        	1.459930	25.000000	528.908096	3.933535	0.000000	                
SUB-570         	RAINGAGE-3      	STOR-50         	21.098020	25.000000	1888.999100	0.850200	0.000000	                
SUB-574         	RAINGAGE-3      	STOR-106        	63.643261	25.000000	4579.033427	2.254636	0.000000	                
SUB-586         	RAINGAGE-2      	JCT-1098        	40.604073	25.000000	4223.222689	2.733973	0.000000	                
SUB-588         	RAINGAGE-3      	OFALL-148       	23.713366	25.000000	2403.212400	3.500000	0.000000	                
SUB-592         	RAINGAGE-3      	JCT-1092        	21.333340	25.000000	2640.185074	3.478707	0.000000	                
SUB-594         	RAINGAGE-2      	STOR-104        	148.233190	25.000000	7167.654726	3.786655	0.000000	                
SUB-596         	RAINGAGE-3      	STOR-90         	92.112809	25.000000	4903.521394	2.548161	0.000000	                
SUB-598         	RAINGAGE-3      	JCT-774         	2.250044	25.000000	1198.993993	2.393858	0.000000	                
SUB-604         	RAINGAGE-3      	OFALL-32        	39.389572	25.000000	2399.631651	1.827317	0.000000	                
SUB-610         	RAINGAGE-3      	OFALL-144       	15.934805	25.000000	1977.468600	2.719400	0.000000	                
SUB-614         	RAINGAGE-3      	JCT-774         	1.819778	25.000000	1185.005274	2.552875	0.000000	                
SUB-616         	RAINGAGE-3      	JCT-38          	65.004067	25.000000	4243.950600	2.368408	0.000000	                
SUB-624         	RAINGAGE-3      	JCT-1116        	8.343965	25.000000	1425.288751	3.113300	0.000000	                
SUB-626         	RAINGAGE-3      	JCT-1112        	6.894654	25.000000	1315.588215	3.179938	0.000000	                
SUB-628         	RAINGAGE-3      	STOR-50         	10.955499	25.000000	3434.843100	1.587300	0.000000	                
SUB-630         	RAINGAGE-3      	OFALL-146       	15.166346	25.000000	2286.471400	1.380900	0.000000	                
SUB-642         	RAINGAGE-3      	STOR-86         	48.694371	25.000000	4761.387623	5.361688	0.000000	                
SUB-652         	RAINGAGE-3      	JCT-764         	113.368872	25.000000	5794.418890	4.016440	0.000000	                
SUB-658         	RAINGAGE-3      	JCT-1110        	8.664248	25.000000	1240.397946	3.432906	0.000000	                
SUB-664         	RAINGAGE-3      	STOR-48         	14.169223	25.000000	3023.230900	2.011200	0.000000	                
SUB-698         	RAINGAGE-3      	JCT-1108        	77.873183	25.000000	4056.664853	2.309021	0.000000	                
SUB-702         	RAINGAGE-3      	JCT-1116        	17.714142	25.000000	1790.806983	3.530186	0.000000	                
SUB-742         	RAINGAGE-3      	STOR-48         	12.375878	25.000000	2843.054124	3.851189	0.000000	                
SUB-772         	RAINGAGE-3      	OFALL-150       	38.067268	25.000000	3607.740800	2.965100	0.000000	                
SUB-816         	RAINGAGE-3      	STOR-94         	39.709996	25.000000	5647.375877	3.075217	0.000000	                
; New Subcatchment
SUB-892         	RAINGAGE-4      	STOR-40         	5.517135	25.000000	500.000000	0.207000	0.000000	                
; New Subcatchment
SUB-894         	RAINGAGE-4      	STOR-42         	6.298914	25.000000	500.000000	0.210000	0.000000	                
; New Subcatchment
SUB-898         	RAINGAGE-4      	STOR-46         	41.925775	25.000000	500.000000	0.770000	0.000000	                
; New Subcatchment
SUB-900         	RAINGAGE-3      	STOR-50         	13.458598	25.000000	500.000000	0.350000	0.000000	                
; New Subcatchment
SUB-902         	RAINGAGE-4      	STOR-50         	42.994417	25.000000	500.000000	0.760000	0.000000	                
; New Subcatchment
SUB-904         	RAINGAGE-4      	STOR-56         	10.209505	25.000000	500.000000	0.250000	0.000000	                
; New Subcatchment
SUB-908         	RAINGAGE-4      	STOR-54         	36.050111	25.000000	500.000000	0.610000	0.000000	                
; New Subcatchment
SUB-910         	RAINGAGE-4      	STOR-52         	14.675646	25.000000	500.000000	0.730000	0.000000	                
; New Subcatchment
SUB-914         	RAINGAGE-4      	STOR-44         	28.182032	25.000000	500.000000	0.450000	0.000000	                
; New Subcatchment
SUB-916         	RAINGAGE-4      	STOR-58         	26.337280	25.000000	500.000000	0.550000	0.000000	                
; New Subcatchment
SUB-936         	RAINGAGE-2      	JCT-1162        	38.261419	25.000000	500.000000	3.220000	0.000000	                
; New Subcatchment
SUB-942         	RAINGAGE-3      	JCT-966         	79.482669	25.000000	500.000000	2.750000	0.000000	                
; New Subcatchment
SUB-944         	RAINGAGE-3      	JCT-928         	52.960657	25.000000	500.000000	3.180000	0.000000	                
; New Subcatchment
SUB-946         	RAINGAGE-3      	STOR-80         	65.882566	25.000000	500.000000	3.180000	0.000000	                
; New Subcatchment
SUB-948         	RAINGAGE-3      	OFALL-106       	80.657522	25.000000	500.000000	3.180000	0.000000	                
; New Subcatchment
SUB-950         	RAINGAGE-3      	JCT-960         	37.659054	25.000000	500.000000	2.600000	0.000000	                
; New Subcatchment
SUB-952         	RAINGAGE-3      	JCT-964         	22.586863	25.000000	500.000000	2.600000	0.000000	                
; New Subcatchment
SUB-954         	RAINGAGE-3      	JCT-1028        	28.911234	25.000000	500.000000	2.600000	0.000000	                
; New Subcatchment
SUB-956         	RAINGAGE-3      	JCT-434         	24.748101	25.000000	500.000000	3.387200	0.000000	                
; New Subcatchment
SUB-958         	RAINGAGE-3      	JCT-516         	35.300807	25.000000	500.000000	3.387000	0.000000	                
; New Subcatchment
SUB-960         	RAINGAGE-3      	JCT-932         	25.174943	25.000000	500.000000	3.200000	0.000000	                
; New Subcatchment
SUB-964         	RAINGAGE-3      	JCT-1036        	88.973130	25.000000	500.000000	2.907100	0.000000	                
; New Subcatchment
SUB-966         	RAINGAGE-3      	JCT-352         	65.161927	25.000000	500.000000	2.907100	0.000000	                
; New Subcatchment
SUB-968         	RAINGAGE-3      	STOR-100        	86.875252	25.000000	500.000000	3.338700	0.000000	                
; New Subcatchment
SUB-970         	RAINGAGE-3      	JCT-120         	67.346907	25.000000	500.000000	3.338700	0.000000	                
; New Subcatchment
SUB-972         	RAINGAGE-3      	JCT-142         	42.484706	25.000000	500.000000	3.338700	0.000000	                
; New Subcatchment
SUB-974         	RAINGAGE-3      	OFALL-158       	99.947449	25.000000	500.000000	2.500000	0.000000	                
; New Subcatchment
SUB-976         	RAINGAGE-3      	STOR-28         	53.746482	25.000000	500.000000	2.550000	0.000000	                
; New Subcatchment
SUB-978         	RAINGAGE-3      	JCT-1062        	32.799069	25.000000	500.000000	2.450000	0.000000	                
; New Subcatchment
SUB-980         	RAINGAGE-3      	JCT-62          	65.551801	25.000000	500.000000	2.350000	0.000000	                
; New Subcatchment
SUB-982         	RAINGAGE-3      	JCT-1070        	100.913434	25.000000	500.000000	2.200000	0.000000	                
; New Subcatchment
SUB-984         	RAINGAGE-3      	JCT-1086        	61.713643	25.000000	500.000000	2.220000	0.000000	                
; New Subcatchment
SUB-986         	RAINGAGE-3      	JCT-1088        	50.281107	25.000000	500.000000	1.800000	0.000000	                
; New Subcatchment
SUB-988         	RAINGAGE-3      	JCT-102         	21.515251	25.000000	500.000000	1.800000	0.000000	                
; New Subcatchment
SUB-990         	RAINGAGE-3      	JCT-70          	16.554150	25.000000	500.000000	2.225000	0.000000	                
; New Subcatchment
SUB-992         	RAINGAGE-3      	JCT-1092        	21.951003	25.000000	500.000000	2.350000	0.000000	                
; New Subcatchment
SUB-996         	RAINGAGE-4      	OFALL-124       	29.684383	25.000000	500.000000	0.780000	0.000000	                

[SUBAREAS]
;;Subcatchment  	N-Imperv  	N-Perv    	S-Imperv  	S-Perv    	PctZero   	RouteTo   	PctRouted 
;;--------------	----------	----------	----------	----------	----------	----------	----------
SUB-1000        	0.100000  	0.001000  	0.050000  	0.050000  	25.000000 	OUTLET    
SUB-1002        	0.100000  	0.001000  	0.050000  	0.050000  	25.000000 	OUTLET    
SUB-1004        	0.100000  	0.001000  	0.050000  	0.050000  	25.000000 	OUTLET    
SUB-1008        	0.100000  	0.001000  	0.050000  	0.050000  	25.000000 	OUTLET    
SUB-1010        	0.100000  	0.001000  	0.050000  	0.050000  	25.000000 	OUTLET    
SUB-1012        	0.100000  	0.001000  	0.050000  	0.050000  	25.000000 	OUTLET    
SUB-1014        	0.100000  	0.001000  	0.050000  	0.050000  	25.000000 	OUTLET    
SUB-1016        	0.100000  	0.001000  	0.050000  	0.050000  	25.000000 	OUTLET    
SUB-1018        	0.100000  	0.001000  	0.050000  	0.050000  	25.000000 	OUTLET    
SUB-1020        	0.100000  	0.001000  	0.050000  	0.050000  	25.000000 	OUTLET    
SUB-1022        	0.100000  	0.001000  	0.050000  	0.050000  	25.000000 	OUTLET    
SUB-1024        	0.100000  	0.001000  	0.050000  	0.050000  	25.000000 	OUTLET    
SUB-1028        	0.100000  	0.001000  	0.050000  	0.050000  	25.000000 	OUTLET    
SUB-1032        	0.100000  	0.001000  	0.050000  	0.050000  	25.000000 	OUTLET    
SUB-1034        	0.100000  	0.001000  	0.050000  	0.050000  	25.000000 	OUTLET    
SUB-544         	0.100000  	0.001000  	0.050000  	0.050000  	25.000000 	OUTLET    
SUB-546         	0.100000  	0.001000  	0.050000  	0.050000  	25.000000 	OUTLET    
SUB-550         	0.100000  	0.001000  	0.050000  	0.050000  	25.000000 	OUTLET    
SUB-556         	0.100000  	0.001000  	0.050000  	0.050000  	25.000000 	OUTLET    
SUB-558         	0.100000  	0.001000  	0.050000  	0.050000  	25.000000 	OUTLET    
SUB-562         	0.100000  	0.001000  	0.050000  	0.050000  	25.000000 	OUTLET    
SUB-564         	0.100000  	0.001000  	0.050000  	0.050000  	25.000000 	OUTLET    
SUB-566         	0.100000  	0.001000  	0.050000  	0.050000  	25.000000 	OUTLET    
SUB-568         	0.100000  	0.001000  	0.050000  	0.050000  	25.000000 	OUTLET    
SUB-570         	0.100000  	0.001000  	0.050000  	0.050000  	25.000000 	OUTLET    
SUB-574         	0.100000  	0.001000  	0.050000  	0.050000  	25.000000 	OUTLET    
SUB-586         	0.100000  	0.001000  	0.050000  	0.050000  	25.000000 	OUTLET    
SUB-588         	0.100000  	0.001000  	0.050000  	0.050000  	25.000000 	OUTLET    
SUB-592         	0.100000  	0.001000  	0.050000  	0.050000  	25.000000 	OUTLET    
SUB-594         	0.100000  	0.001000  	0.050000  	0.050000  	25.000000 	OUTLET    
SUB-596         	0.100000  	0.001000  	0.050000  	0.050000  	25.000000 	OUTLET    
SUB-598         	0.100000  	0.001000  	0.050000  	0.050000  	25.000000 	OUTLET    
SUB-604         	0.100000  	0.001000  	0.050000  	0.050000  	25.000000 	OUTLET    
SUB-610         	0.100000  	0.001000  	0.050000  	0.050000  	25.000000 	OUTLET    
SUB-614         	0.100000  	0.001000  	0.050000  	0.050000  	25.000000 	OUTLET    
SUB-616         	0.100000  	0.001000  	0.050000  	0.050000  	25.000000 	OUTLET    
SUB-624         	0.100000  	0.001000  	0.050000  	0.050000  	25.000000 	OUTLET    
SUB-626         	0.100000  	0.001000  	0.050000  	0.050000  	25.000000 	OUTLET    
SUB-628         	0.100000  	0.001000  	0.050000  	0.050000  	25.000000 	OUTLET    
SUB-630         	0.100000  	0.001000  	0.050000  	0.050000  	25.000000 	OUTLET    
SUB-642         	0.100000  	0.001000  	0.050000  	0.050000  	25.000000 	OUTLET    
SUB-652         	0.100000  	0.001000  	0.050000  	0.050000  	25.000000 	OUTLET    
SUB-658         	0.100000  	0.001000  	0.050000  	0.050000  	25.000000 	OUTLET    
SUB-664         	0.100000  	0.001000  	0.050000  	0.050000  	25.000000 	OUTLET    
SUB-698         	0.100000  	0.001000  	0.050000  	0.050000  	25.000000 	OUTLET    
SUB-702         	0.100000  	0.001000  	0.050000  	0.050000  	25.000000 	OUTLET    
SUB-742         	0.100000  	0.001000  	0.050000  	0.050000  	25.000000 	OUTLET    
SUB-772         	0.100000  	0.001000  	0.050000  	0.050000  	25.000000 	OUTLET    
SUB-816         	0.100000  	0.001000  	0.050000  	0.050000  	25.000000 	OUTLET    
SUB-892         	0.100000  	0.001000  	0.050000  	0.050000  	25.000000 	OUTLET    
SUB-894         	0.100000  	0.001000  	0.050000  	0.050000  	25.000000 	OUTLET    
SUB-898         	0.100000  	0.001000  	0.050000  	0.050000  	25.000000 	OUTLET    
SUB-900         	0.100000  	0.001000  	0.050000  	0.050000  	25.000000 	OUTLET    
SUB-902         	0.100000  	0.001000  	0.050000  	0.050000  	25.000000 	OUTLET    
SUB-904         	0.100000  	0.001000  	0.050000  	0.050000  	25.000000 	OUTLET    
SUB-908         	0.100000  	0.001000  	0.050000  	0.050000  	25.000000 	OUTLET    
SUB-910         	0.100000  	0.001000  	0.050000  	0.050000  	25.000000 	OUTLET    
SUB-914         	0.100000  	0.001000  	0.050000  	0.050000  	25.000000 	OUTLET    
SUB-916         	0.100000  	0.001000  	0.050000  	0.050000  	25.000000 	OUTLET    
SUB-936         	0.100000  	0.001000  	0.050000  	0.050000  	25.000000 	OUTLET    
SUB-942         	0.100000  	0.001000  	0.050000  	0.050000  	25.000000 	OUTLET    
SUB-944         	0.100000  	0.001000  	0.050000  	0.050000  	25.000000 	OUTLET    
SUB-946         	0.100000  	0.001000  	0.050000  	0.050000  	25.000000 	OUTLET    
SUB-948         	0.100000  	0.001000  	0.050000  	0.050000  	25.000000 	OUTLET    
SUB-950         	0.100000  	0.001000  	0.050000  	0.050000  	25.000000 	OUTLET    
SUB-952         	0.100000  	0.001000  	0.050000  	0.050000  	25.000000 	OUTLET    
SUB-954         	0.100000  	0.001000  	0.050000  	0.050000  	25.000000 	OUTLET    
SUB-956         	0.100000  	0.001000  	0.050000  	0.050000  	25.000000 	OUTLET    
SUB-958         	0.100000  	0.001000  	0.050000  	0.050000  	25.000000 	OUTLET    
SUB-960         	0.100000  	0.001000  	0.050000  	0.050000  	25.000000 	OUTLET    
SUB-964         	0.100000  	0.001000  	0.050000  	0.050000  	25.000000 	OUTLET    
SUB-966         	0.100000  	0.001000  	0.050000  	0.050000  	25.000000 	OUTLET    
SUB-968         	0.100000  	0.001000  	0.050000  	0.050000  	25.000000 	OUTLET    
SUB-970         	0.100000  	0.001000  	0.050000  	0.050000  	25.000000 	OUTLET    
SUB-972         	0.100000  	0.001000  	0.050000  	0.050000  	25.000000 	OUTLET    
SUB-974         	0.100000  	0.001000  	0.050000  	0.050000  	25.000000 	OUTLET    
SUB-976         	0.100000  	0.001000  	0.050000  	0.050000  	25.000000 	OUTLET    
SUB-978         	0.100000  	0.001000  	0.050000  	0.050000  	25.000000 	OUTLET    
SUB-980         	0.100000  	0.001000  	0.050000  	0.050000  	25.000000 	OUTLET    
SUB-982         	0.100000  	0.001000  	0.050000  	0.050000  	25.000000 	OUTLET    
SUB-984         	0.100000  	0.001000  	0.050000  	0.050000  	25.000000 	OUTLET    
SUB-986         	0.100000  	0.001000  	0.050000  	0.050000  	25.000000 	OUTLET    
SUB-988         	0.100000  	0.001000  	0.050000  	0.050000  	25.000000 	OUTLET    
SUB-990         	0.100000  	0.001000  	0.050000  	0.050000  	25.000000 	OUTLET    
SUB-992         	0.100000  	0.001000  	0.050000  	0.050000  	25.000000 	OUTLET    
SUB-996         	0.100000  	0.001000  	0.050000  	0.050000  	25.000000 	OUTLET    

[INFILTRATION]
;;Subcatchment  	CurveNum  	HydCon    	DryTime   
;;--------------	----------	----------	----------
SUB-1000        	83.500000 	0.035000  	75.000000 
SUB-1002        	82.450000 	0.153500  	75.000000 
SUB-1004        	89.500000 	0.162000  	75.000000 
SUB-1008        	90.760000 	0.113800  	75.000000 
SUB-1010        	79.696970 	0.088283  	75.000000 
SUB-1012        	92.200000 	0.040000  	75.000000 
SUB-1014        	92.200000 	0.040000  	75.000000 
SUB-1016        	92.200000 	0.040000  	75.000000 
SUB-1018        	80.600000 	0.120000  	75.000000 
SUB-1020        	80.600000 	0.120000  	75.000000 
SUB-1022        	86.000000 	0.016000  	75.000000 
SUB-1024        	88.800000 	0.026000  	75.000000 
SUB-1028        	94.600000 	0.074000  	75.000000 
SUB-1032        	91.900000 	0.180000  	75.000000 
SUB-1034        	95.600000 	0.016000  	75.000000 
SUB-544         	92.690722 	0.049072  	75.000000 
SUB-546         	83.071429 	0.114694  	75.000000 
SUB-550         	85.550000 	0.083000  	75.000000 
SUB-556         	81.200000 	0.070800  	75.000000 
SUB-558         	89.630000 	0.084800  	75.000000 
SUB-562         	82.267327 	0.145644  	75.000000 
SUB-564         	74.330000 	0.153000  	75.000000 
SUB-566         	90.858586 	0.032727  	75.000000 
SUB-568         	84.650000 	0.089000  	75.000000 
SUB-570         	90.551020 	0.083673  	75.000000 
SUB-574         	85.390000 	0.081500  	75.000000 
SUB-586         	95.210000 	0.018600  	75.000000 
SUB-588         	80.707071 	0.153535  	75.000000 
SUB-592         	76.880000 	0.088000  	75.000000 
SUB-594         	83.000000 	0.074400  	75.000000 
SUB-596         	81.646465 	0.088283  	75.000000 
SUB-598         	90.257426 	0.087129  	75.000000 
SUB-604         	83.750000 	0.019000  	75.000000 
SUB-610         	89.212121 	0.094848  	75.000000 
SUB-614         	90.180000 	0.068000  	75.000000 
SUB-616         	85.100000 	0.038800  	75.000000 
SUB-624         	86.000000 	0.080000  	75.000000 
SUB-626         	75.440000 	0.094000  	75.000000 
SUB-628         	85.571429 	0.107143  	75.000000 
SUB-630         	64.888889 	0.192424  	75.000000 
SUB-642         	90.760000 	0.113800  	75.000000 
SUB-652         	87.090909 	0.143434  	75.000000 
SUB-658         	80.180000 	0.075000  	75.000000 
SUB-664         	85.970000 	0.041700  	75.000000 
SUB-698         	76.760000 	0.123000  	75.000000 
SUB-702         	75.260000 	0.097000  	75.000000 
SUB-742         	91.050000 	0.010600  	75.000000 
SUB-772         	92.387755 	0.065918  	75.000000 
SUB-816         	94.670000 	0.063800  	75.000000 
SUB-892         	91.000000 	0.100000  	75.000000 
SUB-894         	91.000000 	0.100000  	75.000000 
SUB-898         	91.000000 	0.100000  	75.000000 
SUB-900         	91.000000 	0.100000  	75.000000 
SUB-902         	91.000000 	0.100000  	75.000000 
SUB-904         	91.000000 	0.100000  	75.000000 
SUB-908         	91.000000 	0.100000  	75.000000 
SUB-910         	91.000000 	0.100000  	75.000000 
SUB-914         	91.000000 	0.100000  	75.000000 
SUB-916         	91.000000 	0.100000  	75.000000 
SUB-936         	92.110000 	0.019600  	75.000000 
SUB-942         	89.150000 	0.019000  	75.000000 
SUB-944         	84.800000 	0.072000  	75.000000 
SUB-946         	91.750000 	0.079000  	75.000000 
SUB-948         	86.700000 	0.059000  	75.000000 
SUB-950         	92.150000 	0.019000  	75.000000 
SUB-952         	88.650000 	0.026000  	75.000000 
SUB-954         	88.350000 	0.018000  	75.000000 
SUB-956         	93.050000 	0.055800  	75.000000 
SUB-958         	93.050000 	0.055800  	75.000000 
SUB-960         	91.750000 	0.079000  	75.000000 
SUB-964         	89.643564 	0.095644  	75.000000 
SUB-966         	89.643564 	0.095644  	75.000000 
SUB-968         	93.130000 	0.079800  	75.000000 
SUB-970         	93.130000 	0.079800  	75.000000 
SUB-972         	83.000000 	0.090000  	75.000000 
SUB-974         	84.200000 	0.082000  	75.000000 
SUB-976         	87.000000 	0.180000  	75.000000 
SUB-978         	73.900000 	0.105000  	75.000000 
SUB-980         	82.000000 	0.110000  	75.000000 
SUB-982         	74.300000 	0.300000  	75.000000 
SUB-984         	87.140000 	0.089500  	75.000000 
SUB-986         	85.818182 	0.077273  	75.000000 
SUB-988         	85.970000 	0.069500  	75.000000 
SUB-990         	78.450000 	0.169500  	75.000000 
SUB-992         	83.600000 	0.090000  	75.000000 
SUB-996         	3.0       	0.5       	4         

[JUNCTIONS]
;;Junction      	Invert    	Dmax      	Dinit     	Dsurch    	Aponded   
;;--------------	----------	----------	----------	----------	----------
JCT-100         	4432.050000	1.763000  	0.000000  	0.000000  	0.000000  
JCT-1000        	4445.036600	4.000021  	0.000000  	0.000000  	0.000000  
JCT-1012        	4441.100100	3.999998  	0.000000  	0.000000  	0.000000  
JCT-102         	4431.905000	1.979000  	0.000000  	0.000000  	0.000000  
; New Junction
JCT-1020        	4440.666000	4.434000  	0.000000  	0.000000  	0.000000  
; New Junction
JCT-1024        	4447.192000	1.516000  	0.000000  	0.000000  	0.000000  
; New Junction
JCT-1028        	4491.300000	4.000000  	0.000000  	0.000000  	0.000000  
; New Junction
JCT-1036        	4493.000000	8.202000  	0.000000  	0.000000  	0.000000  
; New Junction
JCT-1038        	4465.500000	6.500000  	0.000000  	0.000000  	0.000000  
JCT-104         	4429.213000	2.366000  	0.000000  	0.000000  	0.000000  
; New Junction
JCT-1040        	4483.000000	4.000000  	0.000000  	0.000000  	0.000000  
; New Junction
JCT-1052        	4448.620000	2.713500  	0.000000  	0.000000  	0.000000  
JCT-1056        	4454.207500	5.792500  	0.000000  	0.000000  	0.000000  
JCT-1058        	4441.100000	4.000000  	0.000000  	0.000000  	0.000000  
JCT-106         	4428.774000	3.298000  	0.000000  	0.000000  	0.000000  
; New Junction
JCT-1060        	4472.220000	4.002000  	0.000000  	0.000000  	0.000000  
; New Junction
JCT-1062        	4478.850000	4.150000  	0.000000  	0.000000  	0.000000  
JCT-1064        	4453.900000	4.000000  	0.000000  	0.000000  	0.000000  
JCT-1066        	4444.052000	4.000000  	0.000000  	0.000000  	0.000000  
JCT-1068        	4442.740000	4.000000  	0.000000  	0.000000  	0.000000  
JCT-1070        	4447.005400	3.999971  	0.000000  	0.000000  	0.000000  
JCT-1072        	4459.690000	5.422000  	0.000000  	0.000000  	0.000000  
JCT-1074        	4458.460000	6.653000  	0.000000  	0.000000  	0.000000  
JCT-1076        	4456.105000	7.045000  	0.000000  	0.000000  	0.000000  
JCT-1078        	4455.184500	7.965500  	0.000000  	0.000000  	0.000000  
; New Junction
JCT-1080        	4463.737800	3.999993  	0.000000  	0.000000  	0.000000  
; New Junction
JCT-1082        	4464.000000	5.378418  	0.000000  	0.000000  	0.000000  
JCT-1084        	4457.343000	4.872000  	0.000000  	0.000000  	0.000000  
JCT-1086        	4445.690000	4.000000  	0.000000  	0.000000  	0.000000  
JCT-1088        	4433.550000	4.000000  	0.000000  	0.000000  	0.000000  
JCT-1092        	4466.360000	4.000000  	0.000000  	0.000000  	0.000000  
JCT-1098        	4490.312500	4.000000  	0.000000  	0.000000  	0.000000  
; New Junction
JCT-1100        	4446.670000	3.290000  	0.000000  	0.000000  	0.000000  
; New Junction
JCT-1102        	4447.333000	4.000000  	0.000000  	0.000000  	0.000000  
; New Junction
JCT-1104        	4473.026000	4.000000  	0.000000  	0.000000  	0.000000  
JCT-1108        	4489.000000	4.000000  	0.000000  	0.000000  	0.000000  
; New Junction
JCT-1110        	4485.006000	4.054000  	0.000000  	0.000000  	0.000000  
; New Junction
JCT-1112        	4480.470000	4.000000  	0.000000  	0.000000  	0.000000  
; New Junction
JCT-1116        	4473.580000	4.000000  	0.000000  	0.000000  	0.000000  
JCT-112         	4448.260000	4.915000  	0.000000  	0.000000  	0.000000  
; New Junction
JCT-1120        	4457.000000	7.500000  	0.000000  	0.000000  	0.000000  
; New Junction
JCT-1122        	4483.510000	4.000000  	0.000000  	0.000000  	0.000000  
JCT-114         	4447.320000	4.151000  	0.000000  	0.000000  	0.000000  
JCT-1154        	4466.000000	6.000000  	0.000000  	0.000000  	0.000000  
; New Junction
JCT-1158        	4492.000000	8.200000  	0.000000  	0.000000  	0.000000  
JCT-116         	4447.148000	3.382000  	0.000000  	0.000000  	0.000000  
JCT-1162        	4489.980000	4.000000  	0.000000  	0.000000  	0.000000  
JCT-118         	4447.940000	4.294000  	0.000000  	0.000000  	0.000000  
JCT-120         	4446.819000	2.099000  	0.000000  	0.000000  	0.000000  
JCT-122         	4446.126000	1.495000  	0.000000  	0.000000  	0.000000  
JCT-124         	4442.879000	2.498000  	0.000000  	0.000000  	0.000000  
JCT-126         	4441.762000	3.770000  	0.000000  	0.000000  	0.000000  
; New Junction
JCT-1298        	4453.500000	4.500000  	0.000000  	0.000000  	0.000000  
JCT-138         	4441.616000	3.916000  	0.000000  	0.000000  	0.000000  
JCT-14          	4441.328000	2.294000  	0.000000  	0.000000  	0.000000  
JCT-142         	4439.622000	3.657000  	0.000000  	0.000000  	0.000000  
JCT-148         	4476.867000	5.303000  	0.000000  	0.000000  	0.000000  
JCT-150         	4476.566000	4.954000  	0.000000  	0.000000  	0.000000  
JCT-16          	4441.236500	2.173500  	0.000000  	0.000000  	0.000000  
JCT-18          	4440.836000	2.296000  	0.000000  	0.000000  	0.000000  
JCT-192         	4423.410900	6.589100  	0.000000  	0.000000  	0.000000  
JCT-194         	4423.446000	9.554000  	0.000000  	0.000000  	0.000000  
JCT-20          	4440.517000	3.263000  	0.000000  	0.000000  	0.000000  
JCT-200         	4428.168000	4.752000  	0.000000  	0.000000  	0.000000  