[TITLE]
;;Project Title/Notes
Scenario Run :  SCN-22May 5 - The UH duration in the simulation options was varied from 5 - 20 minutes in 5 minute increments and no change in the runoff occured
SCS Type II 24 hr 100 yr storm for storage.
SCS Type II 24 hr 25 yr storm for major conveyance

[OPTIONS]
;;Option            	Value
FLOW_UNITS          	CFS
INFILTRATION        	CURVE_NUMBER
FLOW_ROUTING        	DYNWAVE
LINK_OFFSETS        	DEPTH
MIN_SLOPE           	0
ALLOW_PONDING       	YES
SKIP_STEADY_STATE   	NO

START_DATE          	01/01/2002
START_TIME          	00:00:00
REPORT_START_DATE   	01/01/2002
REPORT_START_TIME   	00:00:00
END_DATE            	01/02/2002
END_TIME            	23:00:00
SWEEP_START         	01/01
SWEEP_END           	12/31
DRY_DAYS            	5.000000
REPORT_STEP         	00:05:00
WET_STEP            	00:10:00
DRY_STEP            	23:00:00
ROUTING_STEP    	10

INERTIAL_DAMPING    	PARTIAL
NORMAL_FLOW_LIMITED 	BOTH
FORCE_MAIN_EQUATION 	H-W
VARIABLE_STEP    	0
LENGTHENING_STEP    	0
MIN_SURFAREA        	12.557
MAX_TRIALS          	8
HEAD_TOLERANCE      	0.005
SYS_FLOW_TOL        	5
LAT_FLOW_TOL        	5

[EVAPORATION]
;;Evap Data     	Parameters
;;--------------	----------------
CONSTANT        	0.000000
DRY_ONLY        	NO

[RAINGAGES]
;;Gage          	Format   	Interval	SCF     	Source    
;;--------------	---------	------	------	----------
; Logan USU
RAINGAGE-1      	CUMULATIVE	0.500000	1.000000	TIMESERIES	TIMESERI-23     
; Logan USU Exp. Stn.
RAINGAGE-2      	CUMULATIVE	0.500000	1.000000	TIMESERIES	TIMESERI-19     
; Logan Radio KVNU
RAINGAGE-3      	CUMULATIVE	0.500000	1.000000	TIMESERIES	TIMESERI-21     
; Logan 5 SW Exp. Farm
RAINGAGE-4      	CUMULATIVE	0.500000	1.000000	TIMESERIES	TIMESERI-17     

[SUBCATCHMENTS]
;;Subcatchment  	Rain Gage       	Outlet          	Area    	%Imperv 	Width   	%Slope  	CurbLen 	Snow Pack       
;;--------------	----------------	----------------	--------	--------	--------	--------	--------	----------------
; New Subcatchment
SUB-1006        	RAINGAGE-2      	JCT-1096        	18.381845	25.000000	500.000000	2.370000	0.000000	                
; New Subcatchment
SUB-1036        	RAINGAGE-1      	JCT-1170        	21.849495	25.000000	500.000000	4.710700	0.000000	                
; New Subcatchment
SUB-1038        	RAINGAGE-1      	JCT-1168        	14.991803	25.000000	500.000000	5.098700	0.000000	                
; New Subcatchment
SUB-1040        	RAINGAGE-1      	JCT-1166        	13.853334	25.000000	500.000000	4.604700	0.000000	                
; New Subcatchment
SUB-1042        	RAINGAGE-1      	JCT-1164        	15.465643	25.000000	500.000000	4.648000	0.000000	                
; New Subcatchment
SUB-1044        	RAINGAGE-3      	JCT-1230        	9.945378	25.000000	500.000000	2.600000	0.000000	                
SUB-542         	RAINGAGE-2      	JCT-576         	67.821130	25.000000	5349.014761	1.737212	0.000000	                
SUB-548         	RAINGAGE-2      	JCT-576         	120.776979	25.000000	7729.067449	1.937992	0.000000	                
SUB-552         	RAINGAGE-2      	JCT-162         	177.175931	25.000000	11968.082593	1.942384	0.000000	                
SUB-576         	RAINGAGE-2      	STOR-64         	128.811110	25.000000	4267.126997	2.722165	0.000000	                
SUB-582         	RAINGAGE-2      	JCT-1018        	61.983119	25.000000	3519.193191	2.965241	0.000000	                
SUB-600         	RAINGAGE-3      	JCT-1218        	27.441436	25.000000	3969.910925	3.358222	0.000000	                
SUB-602         	RAINGAGE-3      	JCT-750         	42.617364	25.000000	6488.624326	2.987730	0.000000	                
SUB-608         	RAINGAGE-2      	JCT-602         	38.229830	25.000000	2373.939281	2.999949	0.000000	                
SUB-612         	RAINGAGE-2      	JCT-914         	155.437907	25.000000	4693.775389	2.064371	0.000000	                
SUB-618         	RAINGAGE-3      	JCT-1226        	25.459603	25.000000	3178.304831	2.279698	0.000000	                
SUB-620         	RAINGAGE-3      	JCT-1226        	7.580783	25.000000	1330.078901	2.778502	0.000000	                
SUB-622         	RAINGAGE-1      	JCT-1190        	30.296031	25.000000	3958.572595	4.648011	0.000000	                
SUB-634         	RAINGAGE-1      	JCT-1194        	34.214197	25.000000	3794.336637	5.098710	0.000000	                
SUB-636         	RAINGAGE-2      	JCT-556         	21.233402	25.000000	2771.948196	3.032386	0.000000	                
SUB-638         	RAINGAGE-2      	JCT-1212        	33.635897	25.000000	2443.664798	2.902396	0.000000	                
SUB-640         	RAINGAGE-2      	JCT-536         	134.397638	25.000000	6906.601508	2.161927	0.000000	                
SUB-650         	RAINGAGE-3      	JCT-752         	70.673787	25.000000	7125.245723	3.144945	0.000000	                
SUB-660         	RAINGAGE-3      	JCT-758         	11.405767	25.000000	1375.870608	2.981402	0.000000	                
SUB-668         	RAINGAGE-2      	JCT-1214        	63.902741	25.000000	5819.559654	2.747144	0.000000	                
SUB-682         	RAINGAGE-3      	JCT-1220        	25.526862	25.000000	4668.061268	2.302539	0.000000	                
SUB-684         	RAINGAGE-3      	JCT-1224        	53.989268	25.000000	4732.494931	2.521459	0.000000	                
SUB-686         	RAINGAGE-3      	JCT-1222        	69.401372	25.000000	4785.569628	2.428785	0.000000	                
SUB-688         	RAINGAGE-1      	JCT-1192        	35.080553	25.000000	3826.858554	4.604650	0.000000	                
SUB-690         	RAINGAGE-3      	JCT-740         	35.565174	25.000000	2733.085315	2.891979	0.000000	                
SUB-694         	RAINGAGE-1      	JCT-680         	28.171348	25.000000	3637.969299	3.485002	0.000000	                
SUB-706         	RAINGAGE-1      	JCT-738         	15.642661	25.000000	3495.024572	2.727216	0.000000	                
SUB-710         	RAINGAGE-1      	JCT-784         	81.491886	25.000000	3806.779854	2.970572	0.000000	                
SUB-712         	RAINGAGE-1      	STOR-118        	27.099545	25.000000	2367.456650	17.444849	0.000000	                
SUB-714         	RAINGAGE-2      	JCT-546         	33.267485	25.000000	2627.920892	4.979839	0.000000	                
SUB-716         	RAINGAGE-2      	JCT-1200        	30.856532	25.000000	4550.160257	4.014203	0.000000	                
SUB-718         	RAINGAGE-3      	STOR-16         	2.618732	25.000000	1766.693579	2.571410	0.000000	                
SUB-722         	RAINGAGE-3      	STOR-16         	19.812708	25.000000	1729.764946	3.094434	0.000000	                
SUB-724         	RAINGAGE-2      	JCT-544         	12.046188	25.000000	1346.124572	6.266186	0.000000	                
SUB-726         	RAINGAGE-1      	STOR-14         	17.947589	25.000000	3520.709133	3.254663	0.000000	                
SUB-736         	RAINGAGE-1      	JCT-1186        	7.341781	25.000000	1339.649749	9.600404	0.000000	                
SUB-738         	RAINGAGE-3      	JCT-1184        	23.265503	25.000000	3233.224538	8.024135	0.000000	                
SUB-740         	RAINGAGE-3      	JCT-772         	32.231817	25.000000	2473.761096	3.896658	0.000000	                
SUB-744         	RAINGAGE-1      	JCT-1198        	36.148929	25.000000	4169.414561	4.334899	0.000000	                
; JCT-650
SUB-746         	RAINGAGE-1      	JCT-1196        	37.208152	25.000000	3974.394053	4.710704	0.000000	                
SUB-748         	RAINGAGE-1      	JCT-1176        	35.069444	25.000000	3912.844471	6.785656	0.000000	                
SUB-750         	RAINGAGE-2      	JCT-640         	24.293800	25.000000	2542.125165	4.718851	0.000000	                
SUB-752         	RAINGAGE-1      	JCT-642         	6.793695	25.000000	1351.804055	4.934467	0.000000	                
SUB-762         	RAINGAGE-1      	JCT-1188        	27.699208	25.000000	4469.451691	5.713082	0.000000	                
SUB-766         	RAINGAGE-2      	JCT-1266        	17.238397	25.000000	2364.776701	3.083220	0.000000	                
SUB-770         	RAINGAGE-3      	JCT-778         	17.551265	25.000000	2248.748586	3.831860	0.000000	                
SUB-774         	RAINGAGE-1      	JCT-1172        	19.001972	25.000000	2250.257278	9.992063	0.000000	                
SUB-776         	RAINGAGE-1      	JCT-1234        	175.565096	25.000000	7515.394943	52.328733	0.000000	                
SUB-780         	RAINGAGE-2      	JCT-726         	62.511844	25.000000	3784.819891	2.757622	0.000000	                
SUB-790         	RAINGAGE-1      	JCT-642         	19.553335	25.000000	2677.656948	11.534904	0.000000	                
SUB-796         	RAINGAGE-2      	JCT-1202        	17.954617	25.000000	2263.659252	3.648734	0.000000	                
SUB-802         	RAINGAGE-3      	JCT-1182        	9.253820	25.000000	2056.807369	8.850931	0.000000	                
SUB-804         	RAINGAGE-1      	JCT-698         	51.483337	25.000000	3225.543169	2.747013	0.000000	                
SUB-806         	RAINGAGE-2      	JCT-632         	62.431408	40.000000	4250.751702	4.766074	0.000000	                
SUB-810         	RAINGAGE-1      	JCT-560         	79.582482	30.000000	5525.804926	5.944569	0.000000	                
SUB-812         	RAINGAGE-1      	JCT-570         	61.083024	25.000000	4572.778468	2.657351	0.000000	                
SUB-814         	RAINGAGE-2      	JCT-548         	26.129675	25.000000	3555.640494	3.473847	0.000000	                
SUB-818         	RAINGAGE-1      	JCT-718         	141.349405	0.000000	10235.199479	56.393047	0.000000	                
SUB-820         	RAINGAGE-2      	JCT-1204        	13.854700	25.000000	2487.483214	3.628801	0.000000	                
SUB-830         	RAINGAGE-1      	JCT-716         	176.102495	25.000000	9836.437447	57.409600	0.000000	                
SUB-840         	RAINGAGE-1      	JCT-1238        	7.889248	25.000000	1309.621659	4.569979	0.000000	                
SUB-844         	RAINGAGE-1      	JCT-718         	44.209643	25.000000	2938.871131	11.251542	0.000000	                
; JCT-716
SUB-846         	RAINGAGE-1      	STOR-122        	30.779071	25.000000	2258.392732	13.923946	0.000000	                
SUB-848         	RAINGAGE-1      	JCT-562         	87.303172	25.000000	5105.808437	4.167316	0.000000	                
SUB-850         	RAINGAGE-1      	STOR-10         	55.073418	25.000000	3388.048226	3.699268	0.000000	                
SUB-852         	RAINGAGE-1      	JCT-542         	14.998921	25.000000	3258.338954	5.768533	0.000000	                
SUB-854         	RAINGAGE-1      	JCT-146         	51.507061	25.000000	3458.884320	8.907886	0.000000	                
SUB-856         	RAINGAGE-1      	JCT-144         	52.978402	25.000000	3203.440575	5.711599	0.000000	                
; New Subcatchment
SUB-866         	RAINGAGE-1      	JCT-664         	2.090462	25.000000	500.000000	1.270000	0.000000	                
; New Subcatchment
SUB-868         	RAINGAGE-1      	JCT-542         	21.719828	25.000000	500.000000	4.200000	0.000000	                
; New Subcatchment
SUB-870         	RAINGAGE-1      	JCT-664         	11.738616	25.000000	500.000000	0.900000	0.000000	                
; New Subcatchment
SUB-872         	RAINGAGE-2      	JCT-1126        	12.494091	25.000000	500.000000	3.200000	0.000000	                
; New Subcatchment
SUB-874         	RAINGAGE-2      	JCT-552         	20.077608	25.000000	500.000000	3.273500	0.000000	                
; New Subcatchment
SUB-876         	RAINGAGE-2      	JCT-724         	32.135960	25.000000	500.000000	3.375700	0.000000	                
; New Subcatchment
SUB-882         	RAINGAGE-1      	JCT-1188        	45.270064	25.000000	500.000000	3.500000	0.000000	                
; New Subcatchment
SUB-884         	RAINGAGE-1      	JCT-738         	78.446695	25.000000	500.000000	4.000000	0.000000	                
; New Subcatchment
SUB-926         	RAINGAGE-2      	JCT-1008        	40.702701	25.000000	500.000000	2.350000	0.000000	                
; New Subcatchment
SUB-932         	RAINGAGE-2      	JCT-176         	95.903779	25.000000	500.000000	1.850000	0.000000	                
; New Subcatchment
SUB-934         	RAINGAGE-2      	JCT-1014        	72.103542	25.000000	500.000000	1.400000	0.000000	                
; New Subcatchment
SUB-938         	RAINGAGE-2      	JCT-1264        	37.151869	25.000000	500.000000	3.350000	0.000000	                
; New Subcatchment
SUB-940         	RAINGAGE-2      	JCT-962         	17.029210	25.000000	500.000000	3.380000	0.000000	                

[SUBAREAS]
;;Subcatchment  	N-Imperv  	N-Perv    	S-Imperv  	S-Perv    	PctZero   	RouteTo   	PctRouted 
;;--------------	----------	----------	----------	----------	----------	----------	----------
SUB-1006        	0.100000  	0.001000  	0.050000  	0.050000  	25.000000 	OUTLET    
SUB-1036        	0.100000  	0.001000  	0.050000  	0.050000  	25.000000 	OUTLET    
SUB-1038        	0.100000  	0.001000  	0.050000  	0.050000  	25.000000 	OUTLET    
SUB-1040        	0.100000  	0.001000  	0.050000  	0.050000  	25.000000 	OUTLET    
SUB-1042        	0.100000  	0.001000  	0.050000  	0.050000  	25.000000 	OUTLET    
SUB-1044        	0.100000  	0.001000  	0.050000  	0.050000  	25.000000 	OUTLET    
SUB-542         	0.100000  	0.001000  	0.050000  	0.050000  	25.000000 	OUTLET    
SUB-548         	0.100000  	0.001000  	0.050000  	0.050000  	25.000000 	OUTLET    
SUB-552         	0.100000  	0.001000  	0.050000  	0.050000  	25.000000 	OUTLET    
SUB-576         	0.100000  	0.001000  	0.050000  	0.050000  	25.000000 	OUTLET    
SUB-582         	0.100000  	0.001000  	0.050000  	0.050000  	25.000000 	OUTLET    
SUB-600         	0.100000  	0.001000  	0.050000  	0.050000  	25.000000 	OUTLET    
SUB-602         	0.100000  	0.001000  	0.050000  	0.050000  	25.000000 	OUTLET    
SUB-608         	0.100000  	0.001000  	0.050000  	0.050000  	25.000000 	OUTLET    
SUB-612         	0.100000  	0.001000  	0.050000  	0.050000  	25.000000 	OUTLET    
SUB-618         	0.100000  	0.001000  	0.050000  	0.050000  	25.000000 	OUTLET    
SUB-620         	0.100000  	0.001000  	0.050000  	0.050000  	25.000000 	OUTLET    
SUB-622         	0.100000  	0.001000  	0.050000  	0.050000  	25.000000 	OUTLET    
SUB-634         	0.100000  	0.001000  	0.050000  	0.050000  	25.000000 	OUTLET    
SUB-636         	0.100000  	0.001000  	0.050000  	0.050000  	25.000000 	OUTLET    
SUB-638         	0.100000  	0.001000  	0.050000  	0.050000  	25.000000 	OUTLET    
SUB-640         	0.100000  	0.001000  	0.050000  	0.050000  	25.000000 	OUTLET    
SUB-650         	0.100000  	0.001000  	0.050000  	0.050000  	25.000000 	OUTLET    
SUB-660         	0.100000  	0.001000  	0.050000  	0.050000  	25.000000 	OUTLET    
SUB-668         	0.100000  	0.001000  	0.050000  	0.050000  	25.000000 	OUTLET    
SUB-682         	0.100000  	0.001000  	0.050000  	0.050000  	25.000000 	OUTLET    
SUB-684         	0.100000  	0.001000  	0.050000  	0.050000  	25.000000 	OUTLET    
SUB-686         	0.100000  	0.001000  	0.050000  	0.050000  	25.000000 	OUTLET    
SUB-688         	0.100000  	0.001000  	0.050000  	0.050000  	25.000000 	OUTLET    
SUB-690         	0.100000  	0.001000  	0.050000  	0.050000  	25.000000 	OUTLET    
SUB-694         	0.100000  	0.001000  	0.050000  	0.050000  	25.000000 	OUTLET    
SUB-706         	0.100000  	0.001000  	0.050000  	0.050000  	25.000000 	OUTLET    
SUB-710         	0.100000  	0.001000  	0.050000  	0.050000  	25.000000 	OUTLET    
SUB-712         	0.100000  	0.001000  	0.050000  	0.050000  	25.000000 	OUTLET    
SUB-714         	0.100000  	0.001000  	0.050000  	0.050000  	25.000000 	OUTLET    
SUB-716         	0.100000  	0.001000  	0.050000  	0.050000  	25.000000 	OUTLET    
SUB-718         	0.100000  	0.001000  	0.050000  	0.050000  	25.000000 	OUTLET    
SUB-722         	0.100000  	0.001000  	0.050000  	0.050000  	25.000000 	OUTLET    
SUB-724         	0.100000  	0.001000  	0.050000  	0.050000  	25.000000 	OUTLET    
SUB-726         	0.100000  	0.001000  	0.050000  	0.050000  	25.000000 	OUTLET    
SUB-736         	0.100000  	0.001000  	0.050000  	0.050000  	25.000000 	OUTLET    
SUB-738         	0.100000  	0.001000  	0.050000  	0.050000  	25.000000 	OUTLET    
SUB-740         	0.100000  	0.001000  	0.050000  	0.050000  	25.000000 	OUTLET    
SUB-744         	0.100000  	0.001000  	0.050000  	0.050000  	25.000000 	OUTLET    
SUB-746         	0.100000  	0.001000  	0.050000  	0.050000  	25.000000 	OUTLET    
SUB-748         	0.100000  	0.001000  	0.050000  	0.050000  	25.000000 	OUTLET    
SUB-750         	0.100000  	0.001000  	0.050000  	0.050000  	25.000000 	OUTLET    
SUB-752         	0.100000  	0.001000  	0.050000  	0.050000  	25.000000 	OUTLET    
SUB-762         	0.100000  	0.001000  	0.050000  	0.050000  	25.000000 	OUTLET    
SUB-766         	0.100000  	0.001000  	0.050000  	0.050000  	25.000000 	OUTLET    
SUB-770         	0.100000  	0.001000  	0.050000  	0.050000  	25.000000 	OUTLET    
SUB-774         	0.100000  	0.001000  	0.050000  	0.050000  	25.000000 	OUTLET    
SUB-776         	0.100000  	0.001000  	0.050000  	0.050000  	25.000000 	OUTLET    
SUB-780         	0.100000  	0.001000  	0.050000  	0.050000  	25.000000 	OUTLET    
SUB-790         	0.100000  	0.001000  	0.050000  	0.050000  	25.000000 	OUTLET    
SUB-796         	0.100000  	0.001000  	0.050000  	0.050000  	25.000000 	OUTLET    
SUB-802         	0.100000  	0.001000  	0.050000  	0.050000  	25.000000 	OUTLET    
SUB-804         	0.100000  	0.001000  	0.050000  	0.050000  	25.000000 	OUTLET    
SUB-806         	0.100000  	0.001000  	0.350000  	0.100000  	25.000000 	OUTLET    
SUB-810         	0.100000  	0.001000  	0.100000  	0.350000  	25.000000 	OUTLET    
SUB-812         	0.100000  	0.001000  	0.050000  	0.050000  	25.000000 	OUTLET    
SUB-814         	0.100000  	0.001000  	0.050000  	0.050000  	25.000000 	OUTLET    
SUB-818         	0.100000  	0.001000  	0.400000  	0.200000  	25.000000 	OUTLET    
SUB-820         	0.100000  	0.001000  	0.050000  	0.050000  	25.000000 	OUTLET    
SUB-830         	0.100000  	0.001000  	0.050000  	0.050000  	25.000000 	OUTLET    
SUB-840         	0.100000  	0.001000  	0.050000  	0.050000  	25.000000 	OUTLET    
SUB-844         	0.100000  	0.001000  	0.050000  	0.050000  	25.000000 	OUTLET    
SUB-846         	0.100000  	0.001000  	0.050000  	0.050000  	25.000000 	OUTLET    
SUB-848         	0.100000  	0.001000  	0.050000  	0.050000  	25.000000 	OUTLET    
SUB-850         	0.100000  	0.001000  	0.050000  	0.050000  	25.000000 	OUTLET    
SUB-852         	0.100000  	0.001000  	0.050000  	0.050000  	25.000000 	OUTLET    
SUB-854         	0.100000  	0.001000  	0.050000  	0.050000  	25.000000 	OUTLET    
SUB-856         	0.100000  	0.001000  	0.075000  	0.350000  	25.000000 	OUTLET    
SUB-866         	0.100000  	0.001000  	0.050000  	0.050000  	25.000000 	OUTLET    
SUB-868         	0.100000  	0.001000  	0.050000  	0.050000  	25.000000 	OUTLET    
SUB-870         	0.100000  	0.001000  	0.050000  	0.050000  	25.000000 	OUTLET    
SUB-872         	0.100000  	0.001000  	0.050000  	0.050000  	25.000000 	OUTLET    
SUB-874         	0.100000  	0.001000  	0.050000  	0.050000  	25.000000 	OUTLET    
SUB-876         	0.100000  	0.001000  	0.050000  	0.050000  	25.000000 	OUTLET    
SUB-882         	0.100000  	0.001000  	0.050000  	0.050000  	25.000000 	OUTLET    
SUB-884         	0.100000  	0.001000  	0.050000  	0.050000  	25.000000 	OUTLET    
SUB-926         	0.100000  	0.001000  	0.050000  	0.050000  	25.000000 	OUTLET    
SUB-932         	0.100000  	0.001000  	0.050000  	0.050000  	25.000000 	OUTLET    
SUB-934         	0.100000  	0.001000  	0.050000  	0.050000  	25.000000 	OUTLET    
SUB-938         	0.100000  	0.001000  	0.050000  	0.050000  	25.000000 	OUTLET    
SUB-940         	0.100000  	0.001000  	0.050000  	0.050000  	25.000000 	OUTLET    

[INFILTRATION]
;;Subcatchment  	CurveNum  	HydCon    	DryTime   
;;--------------	----------	----------	----------
SUB-1006        	74.330000 	0.153000  	75.000000 
SUB-1036        	80.575758 	0.151515  	75.000000 
SUB-1038        	80.750000 	0.150000  	75.000000 
SUB-1040        	79.070000 	0.150000  	75.000000 
SUB-1042        	81.440000 	0.144000  	75.000000 
SUB-1044        	91.150000 	0.018000  	75.000000 
SUB-542         	80.130000 	0.020300  	75.000000 
SUB-548         	80.520000 	0.021200  	75.000000 
SUB-552         	80.000000 	0.020000  	75.000000 
SUB-576         	88.860000 	0.029200  	75.000000 
SUB-582         	85.250000 	0.017000  	75.000000 
SUB-600         	78.460000 	0.168000  	75.000000 
SUB-602         	91.780000 	0.142000  	75.000000 
SUB-608         	94.868687 	0.046061  	75.000000 
SUB-612         	79.090000 	0.092600  	75.000000 
SUB-618         	90.565657 	0.153535  	75.000000 
SUB-620         	86.430000 	0.178000  	75.000000 
SUB-622         	81.440000 	0.144000  	75.000000 
SUB-634         	80.750000 	0.150000  	75.000000 
SUB-636         	94.870000 	0.027800  	75.000000 
SUB-638         	91.443299 	0.037113  	75.000000 
SUB-640         	86.202020 	0.032525  	75.000000 
SUB-650         	91.050000 	0.150000  	75.000000 
SUB-660         	94.520000 	0.116000  	75.000000 
SUB-668         	81.150538 	0.104301  	75.000000 
SUB-682         	86.100000 	0.138000  	75.000000 
SUB-684         	89.820000 	0.156000  	75.000000 
SUB-686         	85.485149 	0.146535  	75.000000 
SUB-688         	79.070000 	0.150000  	75.000000 
SUB-690         	90.100000 	0.108400  	75.000000 
SUB-694         	84.534653 	0.081584  	75.000000 
SUB-706         	86.900000 	0.099800  	75.000000 
SUB-710         	82.282828 	0.141414  	75.000000 
SUB-712         	80.390000 	0.144400  	75.000000 
SUB-714         	82.680000 	0.125400  	75.000000 
SUB-716         	83.545455 	0.135354  	75.000000 
SUB-718         	95.190000 	0.012400  	75.000000 
SUB-722         	88.000000 	0.072800  	75.000000 
SUB-724         	92.010000 	0.040000  	75.000000 
SUB-726         	86.570000 	0.091000  	75.000000 
SUB-736         	85.910000 	0.166000  	75.000000 
SUB-738         	82.386139 	0.136634  	75.000000 
SUB-740         	93.610000 	0.144000  	75.000000 
SUB-744         	81.940000 	0.144000  	75.000000 
SUB-746         	80.575758 	0.151515  	75.000000 
SUB-748         	87.336634 	0.136634  	75.000000 
SUB-750         	78.656566 	0.146465  	75.000000 
SUB-752         	98.000000 	0.000000  	75.000000 
SUB-762         	83.306931 	0.134653  	75.000000 
SUB-766         	94.820000 	0.037400  	75.000000 
SUB-770         	93.720000 	0.122000  	75.000000 
SUB-774         	87.792079 	0.152475  	75.000000 
SUB-776         	51.000000 	0.200000  	75.000000 
SUB-780         	89.960000 	0.054100  	75.000000 
SUB-790         	94.300000 	0.020000  	75.000000 
SUB-796         	79.891089 	0.154455  	75.000000 
SUB-802         	85.580000 	0.108000  	75.000000 
SUB-804         	61.747475 	0.195960  	75.000000 
SUB-806         	80.653465 	0.147525  	75.000000 
SUB-810         	78.840000 	0.152000  	75.000000 
SUB-812         	91.000000 	0.100000  	75.000000 
SUB-814         	79.989899 	0.128283  	75.000000 
SUB-818         	51.000000 	0.200000  	75.000000 
SUB-820         	91.210000 	0.074000  	75.000000 
SUB-830         	51.000000 	0.200000  	75.000000 
SUB-840         	77.510000 	0.162000  	75.000000 
SUB-844         	77.300000 	0.180000  	75.000000 
SUB-846         	77.300000 	0.180000  	75.000000 
SUB-848         	78.750000 	0.161000  	75.000000 
SUB-850         	81.890000 	0.134000  	75.000000 
SUB-852         	74.500000 	0.145000  	75.000000 
SUB-854         	79.600000 	0.160000  	75.000000 
SUB-856         	80.948454 	0.146392  	75.000000 
SUB-866         	97.260000 	0.004000  	75.000000 
SUB-868         	91.000000 	0.100000  	75.000000 
SUB-870         	96.150000 	0.010000  	75.000000 
SUB-872         	77.300000 	0.180000  	75.000000 
SUB-874         	86.000000 	0.160000  	75.000000 
SUB-876         	79.600000 	0.160000  	75.000000 
SUB-882         	81.440000 	0.144000  	75.000000 
SUB-884         	82.800000 	0.120000  	75.000000 
SUB-926         	87.000000 	0.060000  	75.000000 
SUB-932         	83.000000 	0.020000  	75.000000 
SUB-934         	80.000000 	0.020000  	75.000000 
SUB-938         	93.970000 	0.022800  	75.000000 
SUB-940         	92.900000 	0.031000  	75.000000 

[JUNCTIONS]
;;Junction      	Invert    	Dmax      	Dinit     	Dsurch    	Aponded   
;;--------------	----------	----------	----------	----------	----------
; New Junction
JCT-1006        	4445.756000	7.214000  	0.000000  	0.000000  	0.000000  
JCT-1008        	4449.630000	4.000000  	0.000000  	0.000000  	0.000000  
JCT-1014        	4443.396000	4.000000  	0.000000  	0.000000  	0.000000  
; New Junction
JCT-1018        	4446.000000	6.317000  	0.000000  	0.000000  	0.000000  
JCT-1094        	4498.750000	5.077000  	0.000000  	0.000000  	0.000000  
JCT-1096        	4489.600000	12.590000 	0.000000  	0.000000  	0.000000  
; New Junction
JCT-1126        	4563.204000	4.276000  	0.000000  	0.000000  	0.000000  
JCT-1160        	4519.000000	5.000000  	0.000000  	0.000000  	0.000000  
JCT-1164        	4634.865000	5.000000  	0.000000  	0.000000  	0.000000  
JCT-1166        	4634.234000	5.000000  	0.000000  	0.000000  	0.000000  
JCT-1168        	4633.660000	5.000000  	0.000000  	0.000000  	0.000000  
JCT-1170        	4633.085000	5.000000  	0.000000  	0.000000  	0.000000  
JCT-1172        	4632.550000	5.000000  	0.000000  	0.000000  	0.000000  
JCT-1174        	4632.080000	5.000000  	0.000000  	0.000000  	0.000000  
JCT-1176        	4631.160000	5.000000  	0.000000  	0.000000  	0.000000  
JCT-1178        	4629.605000	5.000000  	0.000000  	0.000000  	0.000000  
JCT-1182        	4560.178700	5.000000  	0.000000  	0.000000  	0.000000  
JCT-1184        	4559.697200	5.000000  	0.000000  	0.000000  	0.000000  
JCT-1186        	4559.302000	5.000000  	0.000000  	0.000000  	0.000000  
JCT-1188        	4558.892200	5.000000  	0.000000  	0.000000  	0.000000  
JCT-1190        	4558.567900	5.000000  	0.000000  	0.000000  	0.000000  
JCT-1192        	4558.273700	5.000000  	0.000000  	0.000000  	0.000000  
JCT-1194        	4557.839900	5.000000  	0.000000  	0.000000  	0.000000  
JCT-1196        	4557.528000	5.000000  	0.000000  	0.000000  	0.000000  
JCT-1198        	4557.172500	5.000000  	0.000000  	0.000000  	0.000000  
JCT-1200        	4556.908600	5.000000  	0.000000  	0.000000  	0.000000  
JCT-1202        	4556.403300	5.000000  	0.000000  	0.000000  	0.000000  
JCT-1204        	4555.790000	5.000000  	0.000000  	0.000000  	0.000000  
JCT-1206        	4555.265600	6.000000  	0.000000  	0.000000  	0.000000  
JCT-1208        	4489.032000	5.000000  	0.000000  	0.000000  	0.000000  
JCT-1210        	4487.367000	5.000000  	0.000000  	0.000000  	0.000000  
JCT-1212        	4484.178000	7.000000  	0.000000  	0.000000  	0.000000  
JCT-1214        	4481.548000	5.000000  	0.000000  	0.000000  	0.000000  
JCT-1216        	4477.350000	5.000000  	0.000000  	0.000000  	0.000000  
JCT-1218        	4511.950200	4.999995  	0.000000  	0.000000  	0.000000  
JCT-1220        	4509.730000	5.000000  	0.000000  	0.000000  	0.000000  
JCT-1222        	4506.980000	6.680000  	0.000000  	0.000000  	0.000000  
JCT-1224        	4505.310000	6.000000  	0.000000  	0.000000  	0.000000  
JCT-1226        	4500.710000	5.000000  	0.000000  	0.000000  	0.000000  
JCT-1228        	4499.310000	5.000000  	0.000000  	0.000000  	0.000000  
JCT-1230        	4496.455000	4.545000  	0.000000  	0.000000  	0.000000  
JCT-1232        	4841.674800	5.000005  	0.000000  	0.000000  	0.000000  
JCT-1234        	4840.145600	5.000000  	0.000000  	0.000000  	0.000000  
JCT-1236        	4838.726100	5.000000  	0.000000  	0.000000  	0.000000  
JCT-1238        	4838.089400	5.000000  	0.000000  	0.000000  	0.000000  
; New Junction
JCT-1240        	4629.201500	4.999500  	0.000000  	0.000000  	0.000000  
; New Junction
JCT-1242        	4631.750000	5.000000  	0.000000  	0.000000  	0.000000  
; New Junction
JCT-1244        	4637.500000	4.000000  	0.000000  	0.000000  	0.000000  
; New Junction
JCT-1246        	4630.100000	5.000000  	0.000000  	0.000000  	0.000000  
; New Junction
JCT-1248        	4638.340000	4.000000  	0.000000  	0.000000  	0.000000  
; New Junction
JCT-1250        	4556.705000	5.000000  	0.000000  	0.000000  	0.000000  
; New Junction
JCT-1252        	4502.710000	5.000000  	0.000000  	0.000000  	0.000000  
; New Junction
JCT-1256        	4504.210000	5.000000  	0.000000  	0.000000  	0.000000  
; New Junction
JCT-1258        	4510.000000	4.000000  	0.000000  	0.000000  	0.000000  
; New Junction
JCT-1260        	4493.376000	5.000000  	0.000000  	0.000000  	0.000000  
; New Junction
JCT-1264        	4491.597000	5.000000  	0.000000  	0.000000  	0.000000  
; New Junction
JCT-1266        	4489.950000	5.000000  	0.000000  	0.000000  	0.000000  
; New Junction
JCT-1268        	4517.540000	4.000000  	0.000000  	0.000000  	0.000000  
; New Junction
JCT-1270        	4633.430000	5.000000  	0.000000  	0.000000  	0.000000  
; New Junction
JCT-1276        	4459.300000	6.000000  	0.000000  	0.000000  	0.000000  
; New Junction
JCT-1280        	4624.222000	5.778000  	0.000000  	0.000000  	0.000000  
; New Junction
JCT-1282        	4552.520000	6.000000  	0.000000  	0.000000  	0.000000  
JCT-1284        	4524.400000	5.000000  	0.000000  	0.000000  	0.000000  
; New Junction
JCT-1300        	4839.297500	4.000000  	0.000000  	0.000000  	0.000000  
JCT-144         	4768.110000	4.745957  	0.000000  	0.000000  	0.000000  
JCT-146         	4684.000000	13.068359 	0.000000  	0.000000  	0.000000  
JCT-154         	4457.398000	3.025000  	0.000000  	0.000000  	0.000000  
JCT-160         	4447.189000	5.634000  	0.000000  	0.000000  	0.000000  
JCT-162         	4447.555000	4.949000  	0.000000  	0.000000  	0.000000  
JCT-164         	4451.310000	5.690000  	0.000000  	0.000000  	0.000000  
JCT-166         	4450.524000	6.476000  	0.000000  	0.000000  	0.000000  
JCT-172         	4443.192000	5.508000  	0.000000  	0.000000  	0.000000  