[TITLE]
;;Project Title/Notes

[OPTIONS]
;;Option             Value
FLOW_UNITS           CFS
INFILTRATION         CURVE_NUMBER
FLOW_ROUTING         DYNWAVE
LINK_OFFSETS         DEPTH
MIN_SLOPE            0
ALLOW_PONDING        YES
SKIP_STEADY_STATE    NO

START_DATE           07/02/2014
START_TIME           00:00:00
REPORT_START_DATE    07/02/2014
REPORT_START_TIME    00:00:00
END_DATE             07/05/2014
END_TIME             00:00:00
SWEEP_START          01/01
SWEEP_END            12/31
DRY_DAYS             0
REPORT_STEP          00:15:00
WET_STEP             00:05:00
DRY_STEP             01:00:00
ROUTING_STEP         0:00:05 

INERTIAL_DAMPING     PARTIAL
NORMAL_FLOW_LIMITED  BOTH
FORCE_MAIN_EQUATION  H-W
VARIABLE_STEP        0.75
LENGTHENING_STEP     0
MIN_SURFAREA         12.557
MAX_TRIALS           8
HEAD_TOLERANCE       0.005
SYS_FLOW_TOL         5
LAT_FLOW_TOL         5

[EVAPORATION]
;;Evap Data      Parameters
;;-------------- ----------------
CONSTANT         0.0
DRY_ONLY         NO

[RAINGAGES]
;;Gage           Format    Interval SCF      Source    
;;-------------- --------- ------ ------ ----------
TempRain         VOLUME    24:00    1.0      TIMESERIES RainGauge       

[SUBCATCHMENTS]
;;Subcatchment   Rain Gage        Outlet           Area     %Imperv  Width    %Slope   CurbLen  Snow Pack       
;;-------------- ---------------- ---------------- -------- -------- -------- -------- -------- ----------------
TestSubCatch1    TempRain         node1            10       25       1000     0.5      0                        

[SUBAREAS]
;;Subcatchment   N-Imperv   N-Perv     S-Imperv   S-Perv     PctZero    RouteTo    PctRouted 
;;-------------- ---------- ---------- ---------- ---------- ---------- ---------- ----------
TestSubCatch1    0.01       0.1        0.05       0.05       25         OUTLET    

[INFILTRATION]
;;Subcatchment   CurveNum   HydCon     DryTime   
;;-------------- ---------- ---------- ----------
TestSubCatch1    80         0.5        4         

[JUNCTIONS]
;;Junction       Invert     Dmax       Dinit      Dsurch     Aponded   
;;-------------- ---------- ---------- ---------- ---------- ----------
node1            100        0          0          0          0         
node2            85         3          0          0          0         

[OUTFALLS]
;;Outfall        Invert     Type       Stage Data       Gated   
;;-------------- ---------- ---------- ---------------- --------
node3            70         FIXED      0                NO

[CONDUITS]
;;Conduit        From Node        To Node          Length     Roughness  InOffset   OutOffset  InitFlow   MaxFlow   
;;-------------- ---------------- ---------------- ---------- ---------- ---------- ---------- ---------- ----------
link1            node1            node2            400        0.01       0          0          0          0         
link2            node2            node3            600        0.01       0          0          0          0         

[XSECTIONS]
;;Link           Shape        Geom1            Geom2      Geom3      Geom4      Barrels   
;;-------------- ------------ ---------------- ---------- ---------- ---------- ----------
link1            CIRCULAR     3                0          0          0          1                    
link2            CIRCULAR     3                0          0          0          1                    

[LOSSES]
;;Link           Kin        Kout       Kavg       Flap Gate  SeepRate  
;;-------------- ---------- ---------- ---------- ---------- ----------

[INFLOWS]
;;Node           Inflow           Time Series      Type     Funits   Fscale   Baseline Pattern
;;-------------- ---------------- ---------------- -------- -------- -------- -------- --------
node1            FLOW             resr             FLOW     1.0      0        10      

[TIMESERIES]
;;Time Series    Date       Time       Value     
;;-------------- ---------- ---------- ----------
resr             7/2/2014   0:0        10        
resr             7/2/2014   1:00       20        
resr             7/2/2014   2:00       30        
resr             7/2/2014   3:00       30        
resr             7/2/2014   4:00       60        
resr             7/2/2014   5:00       60        
resr             7/2/2014   6:00       50        
resr             7/2/2014   12:00      50        
resr             7/2/2014   13:00      50        
resr             7/2/2014   16:00      50        
resr             7/2/2014   17:00      40        
resr             7/2/2014   18:00      30        
resr             7/2/2014   19:00      20        
resr             7/3/2014   22:00      10        
;
RainGauge        7/2/2014   0:0        2         
RainGauge        7/3/2014   0:0        8         
RainGauge        7/4/2014   0:0        15        
RainGauge        7/5/2014   0:0        8         
RainGauge        7/6/2014   0:0        2         

[REPORT]
;;Reporting Options
INPUT      YES
CONTROLS   YES
SUBCATCHMENTS ALL
NODES ALL
LINKS ALL

[TAGS]

[MAP]
DIMENSIONS 0.000 0.000 10000.000 10000.000
Units      None

[COORDINATES]
;;Node           X-Coord            Y-Coord           
;;-------------- ------------------ ------------------
node1            -1244.726          5474.684          
node2            1648.045           5181.564          
node3            6256.983           4860.335          

[VERTICES]
;;Link           X-Coord            Y-Coord           
;;-------------- ------------------ ------------------

[Polygons]
;;Subcatchment   X-Coord            Y-Coord           
;;-------------- ------------------ ------------------
TestSubCatch1    -4621.677          7719.836          
TestSubCatch1    -5214.724          7075.665          
TestSubCatch1    -5347.648          6339.468          
TestSubCatch1    -5245.399          5705.521          
TestSubCatch1    -4856.851          5368.098          
TestSubCatch1    -3558.282          5071.575          
TestSubCatch1    -2055.215          5265.849          
TestSubCatch1    -869.121           5633.947          
TestSubCatch1    286.299            6523.517          
TestSubCatch1    276.074            7208.589          
TestSubCatch1    -408.998           8404.908          
TestSubCatch1    -1932.515          8721.881          
TestSubCatch1    -3721.881          8650.307          

[SYMBOLS]
;;Gage           X-Coord            Y-Coord           
;;-------------- ------------------ ------------------
TempRain         -2883.436          6942.740          

